
*** ChampSim Multicore Out-of-Order Simulator ***

Warmup Instructions: 1000000
Simulation Instructions: 10000000
Configuration: 1
Number of CPUs: 1
LLC sets: 2048
LLC ways: 16
Off-chip DRAM Channels: 1 Width: 64-bit Data Rate: 1600 MT/s

CPU 0 runs ./trace/bzip2_10M.trace.gz
Initialize SHiP Replacement State
Heartbeat CPU 0 instructions: 1000002 cycles: 454321 heartbeat IPC: 2.20109 cumulative IPC: 2.20109 (Simulation time: 0 hr 0 min 2 sec) 

Warmup complete CPU 0 instructions: 1000002 cycles: 454321 (Simulation time: 0 hr 0 min 2 sec) 

Heartbeat CPU 0 instructions: 2000001 cycles: 2190053 heartbeat IPC: 0.576125 cumulative IPC: 0.576125 (Simulation time: 0 hr 0 min 3 sec) 
Heartbeat CPU 0 instructions: 3000002 cycles: 3968175 heartbeat IPC: 0.562392 cumulative IPC: 0.569176 (Simulation time: 0 hr 0 min 5 sec) 
