
*** ChampSim Multicore Out-of-Order Simulator ***

Warmup Instructions: 1000000
Simulation Instructions: 10000000
Configuration: 1
Number of CPUs: 1
LLC sets: 2048
LLC ways: 16
Off-chip DRAM Channels: 1 Width: 64-bit Data Rate: 1600 MT/s

CPU 0 runs ./trace/bzip2_10M.trace.gz
Initialize SRRIP state
Heartbeat CPU 0 instructions: 1000002 cycles: 454321 heartbeat IPC: 2.20109 cumulative IPC: 2.20109 (Simulation time: 0 hr 0 min 1 sec) 

Warmup complete CPU 0 instructions: 1000002 cycles: 454321 (Simulation time: 0 hr 0 min 1 sec) 

Heartbeat CPU 0 instructions: 2000001 cycles: 2190053 heartbeat IPC: 0.576125 cumulative IPC: 0.576125 (Simulation time: 0 hr 0 min 3 sec) 
Heartbeat CPU 0 instructions: 3000002 cycles: 3968175 heartbeat IPC: 0.562392 cumulative IPC: 0.569176 (Simulation time: 0 hr 0 min 4 sec) 
Heartbeat CPU 0 instructions: 4000000 cycles: 5249315 heartbeat IPC: 0.780553 cumulative IPC: 0.625652 (Simulation time: 0 hr 0 min 6 sec) 
Heartbeat CPU 0 instructions: 5000002 cycles: 6381311 heartbeat IPC: 0.883397 cumulative IPC: 0.674879 (Simulation time: 0 hr 0 min 7 sec) 
Heartbeat CPU 0 instructions: 6000002 cycles: 7339645 heartbeat IPC: 1.04348 cumulative IPC: 0.726182 (Simulation time: 0 hr 0 min 8 sec) 
Heartbeat CPU 0 instructions: 7000000 cycles: 8191384 heartbeat IPC: 1.17407 cumulative IPC: 0.775488 (Simulation time: 0 hr 0 min 10 sec) 
Heartbeat CPU 0 instructions: 8000000 cycles: 9607582 heartbeat IPC: 0.706116 cumulative IPC: 0.764755 (Simulation time: 0 hr 0 min 11 sec) 
Heartbeat CPU 0 instructions: 9000002 cycles: 10947561 heartbeat IPC: 0.746282 cumulative IPC: 0.762396 (Simulation time: 0 hr 0 min 12 sec) 
*** Reached end of trace for Core: 0 Repeating trace: ./trace/bzip2_10M.trace.gz
Heartbeat CPU 0 instructions: 10000001 cycles: 12524678 heartbeat IPC: 0.634068 cumulative IPC: 0.745628 (Simulation time: 0 hr 0 min 14 sec) 
Heartbeat CPU 0 instructions: 11000002 cycles: 13926599 heartbeat IPC: 0.713308 cumulative IPC: 0.742265 (Simulation time: 0 hr 0 min 17 sec) 
Finished CPU 0 instructions: 10000000 cycles: 13472278 cummulative IPC: 0.742265 (Simulation time: 0 hr 0 min 17 sec) 

ChampSim completed all CPUs

Region of Interest Statistics

CPU 0 cummulative IPC: 0.742265 instructions: 10000000 cycles: 13472278
LLC TOTAL     ACCESS:     104771  HIT:      84386  MISS:      20385
LLC LOAD      ACCESS:      66109  HIT:      56199  MISS:       9910
LLC RFO       ACCESS:      16745  HIT:       6442  MISS:      10303
LLC PREFETCH  ACCESS:          0  HIT:          0  MISS:          0
LLC WRITEBACK ACCESS:      21917  HIT:      21745  MISS:        172
