
*** ChampSim Multicore Out-of-Order Simulator ***

Warmup Instructions: 1000000
Simulation Instructions: 10000000
Configuration: 1
Number of CPUs: 1
LLC sets: 2048
LLC ways: 16
Off-chip DRAM Channels: 1 Width: 64-bit Data Rate: 1600 MT/s

CPU 0 runs ./trace/graph_analytics_10M.trace.gz
Initialize SHiP Replacement State
Heartbeat CPU 0 instructions: 1000002 cycles: 547201 heartbeat IPC: 1.82749 cumulative IPC: 1.82749 (Simulation time: 0 hr 0 min 2 sec) 

Warmup complete CPU 0 instructions: 1000002 cycles: 547201 (Simulation time: 0 hr 0 min 2 sec) 

Heartbeat CPU 0 instructions: 2000001 cycles: 2713939 heartbeat IPC: 0.461523 cumulative IPC: 0.461523 (Simulation time: 0 hr 0 min 4 sec) 
Heartbeat CPU 0 instructions: 3000002 cycles: 7718968 heartbeat IPC: 0.199799 cumulative IPC: 0.278871 (Simulation time: 0 hr 0 min 6 sec) 
Heartbeat CPU 0 instructions: 4000000 cycles: 12769064 heartbeat IPC: 0.198016 cumulative IPC: 0.245462 (Simulation time: 0 hr 0 min 9 sec) 
Heartbeat CPU 0 instructions: 5000000 cycles: 18030667 heartbeat IPC: 0.190056 cumulative IPC: 0.228787 (Simulation time: 0 hr 0 min 12 sec) 
Heartbeat CPU 0 instructions: 6000001 cycles: 22896046 heartbeat IPC: 0.205534 cumulative IPC: 0.223725 (Simulation time: 0 hr 0 min 14 sec) 
Heartbeat CPU 0 instructions: 7000001 cycles: 27990540 heartbeat IPC: 0.19629 cumulative IPC: 0.218632 (Simulation time: 0 hr 0 min 17 sec) 
Heartbeat CPU 0 instructions: 8000000 cycles: 33168065 heartbeat IPC: 0.193142 cumulative IPC: 0.214587 (Simulation time: 0 hr 0 min 20 sec) 
Heartbeat CPU 0 instructions: 9000002 cycles: 38032056 heartbeat IPC: 0.205593 cumulative IPC: 0.21342 (Simulation time: 0 hr 0 min 23 sec) 
*** Reached end of trace for Core: 0 Repeating trace: ./trace/graph_analytics_10M.trace.gz
Heartbeat CPU 0 instructions: 10000003 cycles: 42819740 heartbeat IPC: 0.208869 cumulative IPC: 0.212904 (Simulation time: 0 hr 0 min 25 sec) 
Heartbeat CPU 0 instructions: 11000002 cycles: 44869372 heartbeat IPC: 0.487892 cumulative IPC: 0.225621 (Simulation time: 0 hr 0 min 27 sec) 
Finished CPU 0 instructions: 10000000 cycles: 44322171 cummulative IPC: 0.225621 (Simulation time: 0 hr 0 min 27 sec) 

ChampSim completed all CPUs

Region of Interest Statistics

CPU 0 cummulative IPC: 0.225621 instructions: 10000000 cycles: 44322171
LLC TOTAL     ACCESS:     142547  HIT:      47423  MISS:      95124
LLC LOAD      ACCESS:     103875  HIT:       9845  MISS:      94030
LLC RFO       ACCESS:        970  HIT:         95  MISS:        875
LLC PREFETCH  ACCESS:          0  HIT:          0  MISS:          0
LLC WRITEBACK ACCESS:      37702  HIT:      37483  MISS:        219
