
*** ChampSim Multicore Out-of-Order Simulator ***

Warmup Instructions: 1000000
Simulation Instructions: 10000000
Configuration: 1
Number of CPUs: 1
LLC sets: 2048
LLC ways: 16
Off-chip DRAM Channels: 1 Width: 64-bit Data Rate: 1600 MT/s

CPU 0 runs ./trace/graph_analytics_10M.trace.gz
Initialize SRRIP state
Heartbeat CPU 0 instructions: 1000002 cycles: 547201 heartbeat IPC: 1.82749 cumulative IPC: 1.82749 (Simulation time: 0 hr 0 min 2 sec) 

Warmup complete CPU 0 instructions: 1000002 cycles: 547201 (Simulation time: 0 hr 0 min 2 sec) 

Heartbeat CPU 0 instructions: 2000001 cycles: 2713939 heartbeat IPC: 0.461523 cumulative IPC: 0.461523 (Simulation time: 0 hr 0 min 2 sec) 
Heartbeat CPU 0 instructions: 3000002 cycles: 7718968 heartbeat IPC: 0.199799 cumulative IPC: 0.278871 (Simulation time: 0 hr 0 min 5 sec) 
Heartbeat CPU 0 instructions: 4000000 cycles: 12766393 heartbeat IPC: 0.19812 cumulative IPC: 0.245515 (Simulation time: 0 hr 0 min 7 sec) 
Heartbeat CPU 0 instructions: 5000000 cycles: 18024057 heartbeat IPC: 0.190199 cumulative IPC: 0.228874 (Simulation time: 0 hr 0 min 10 sec) 
Heartbeat CPU 0 instructions: 6000001 cycles: 22884895 heartbeat IPC: 0.205726 cumulative IPC: 0.223837 (Simulation time: 0 hr 0 min 12 sec) 
Heartbeat CPU 0 instructions: 7000001 cycles: 27975312 heartbeat IPC: 0.196448 cumulative IPC: 0.218754 (Simulation time: 0 hr 0 min 15 sec) 
Heartbeat CPU 0 instructions: 8000000 cycles: 33144209 heartbeat IPC: 0.193465 cumulative IPC: 0.214744 (Simulation time: 0 hr 0 min 18 sec) 
Heartbeat CPU 0 instructions: 9000002 cycles: 37994837 heartbeat IPC: 0.206159 cumulative IPC: 0.213632 (Simulation time: 0 hr 0 min 20 sec) 
*** Reached end of trace for Core: 0 Repeating trace: ./trace/graph_analytics_10M.trace.gz
Heartbeat CPU 0 instructions: 10000003 cycles: 42779859 heartbeat IPC: 0.208986 cumulative IPC: 0.213105 (Simulation time: 0 hr 0 min 23 sec) 
Heartbeat CPU 0 instructions: 11000002 cycles: 44829222 heartbeat IPC: 0.487956 cumulative IPC: 0.225825 (Simulation time: 0 hr 0 min 25 sec) 
Finished CPU 0 instructions: 10000000 cycles: 44282021 cummulative IPC: 0.225825 (Simulation time: 0 hr 0 min 25 sec) 

ChampSim completed all CPUs

Region of Interest Statistics

CPU 0 cummulative IPC: 0.225825 instructions: 10000000 cycles: 44282021
LLC TOTAL     ACCESS:     142548  HIT:      48081  MISS:      94467
LLC LOAD      ACCESS:     103877  HIT:      10388  MISS:      93489
LLC RFO       ACCESS:        969  HIT:         92  MISS:        877
LLC PREFETCH  ACCESS:          0  HIT:          0  MISS:          0
LLC WRITEBACK ACCESS:      37702  HIT:      37601  MISS:        101
