
*** ChampSim Multicore Out-of-Order Simulator ***

Warmup Instructions: 1000000
Simulation Instructions: 10000000
Configuration: 1
Number of CPUs: 1
LLC sets: 2048
LLC ways: 16
Off-chip DRAM Channels: 1 Width: 64-bit Data Rate: 1600 MT/s

CPU 0 runs ./trace/graph_analytics_10M.trace.gz
Initialize SRRIP state
Heartbeat CPU 0 instructions: 1000002 cycles: 547201 heartbeat IPC: 1.82749 cumulative IPC: 1.82749 (Simulation time: 0 hr 0 min 1 sec) 

Warmup complete CPU 0 instructions: 1000002 cycles: 547201 (Simulation time: 0 hr 0 min 1 sec) 

Heartbeat CPU 0 instructions: 2000001 cycles: 2713939 heartbeat IPC: 0.461523 cumulative IPC: 0.461523 (Simulation time: 0 hr 0 min 3 sec) 
Heartbeat CPU 0 instructions: 3000002 cycles: 7718968 heartbeat IPC: 0.199799 cumulative IPC: 0.278871 (Simulation time: 0 hr 0 min 6 sec) 
Heartbeat CPU 0 instructions: 4000000 cycles: 12769064 heartbeat IPC: 0.198016 cumulative IPC: 0.245462 (Simulation time: 0 hr 0 min 8 sec) 
Heartbeat CPU 0 instructions: 5000000 cycles: 18030477 heartbeat IPC: 0.190063 cumulative IPC: 0.22879 (Simulation time: 0 hr 0 min 11 sec) 
Heartbeat CPU 0 instructions: 6000001 cycles: 22896138 heartbeat IPC: 0.205522 cumulative IPC: 0.223724 (Simulation time: 0 hr 0 min 14 sec) 
Heartbeat CPU 0 instructions: 7000001 cycles: 27991840 heartbeat IPC: 0.196244 cumulative IPC: 0.218622 (Simulation time: 0 hr 0 min 16 sec) 
Heartbeat CPU 0 instructions: 8000000 cycles: 33173786 heartbeat IPC: 0.192978 cumulative IPC: 0.214549 (Simulation time: 0 hr 0 min 19 sec) 
Heartbeat CPU 0 instructions: 9000002 cycles: 38039094 heartbeat IPC: 0.205537 cumulative IPC: 0.213379 (Simulation time: 0 hr 0 min 21 sec) 
*** Reached end of trace for Core: 0 Repeating trace: ./trace/graph_analytics_10M.trace.gz
Heartbeat CPU 0 instructions: 10000003 cycles: 42845797 heartbeat IPC: 0.208043 cumulative IPC: 0.212773 (Simulation time: 0 hr 0 min 24 sec) 
Heartbeat CPU 0 instructions: 11000002 cycles: 44895283 heartbeat IPC: 0.487927 cumulative IPC: 0.225489 (Simulation time: 0 hr 0 min 26 sec) 
Finished CPU 0 instructions: 10000000 cycles: 44348082 cummulative IPC: 0.225489 (Simulation time: 0 hr 0 min 26 sec) 

ChampSim completed all CPUs

Region of Interest Statistics

CPU 0 cummulative IPC: 0.225489 instructions: 10000000 cycles: 44348082
LLC TOTAL     ACCESS:     142548  HIT:      47396  MISS:      95152
LLC LOAD      ACCESS:     103876  HIT:       9682  MISS:      94194
LLC RFO       ACCESS:        970  HIT:         92  MISS:        878
LLC PREFETCH  ACCESS:          0  HIT:          0  MISS:          0
LLC WRITEBACK ACCESS:      37702  HIT:      37622  MISS:         80
