
*** ChampSim Multicore Out-of-Order Simulator ***

Warmup Instructions: 1000000
Simulation Instructions: 10000000
Configuration: 1
Number of CPUs: 1
LLC sets: 2048
LLC ways: 16
Off-chip DRAM Channels: 1 Width: 64-bit Data Rate: 1600 MT/s

CPU 0 runs ./trace/graph_analytics_10M.trace.gz
Initialize SRRIP state
Heartbeat CPU 0 instructions: 1000002 cycles: 547201 heartbeat IPC: 1.82749 cumulative IPC: 1.82749 (Simulation time: 0 hr 0 min 2 sec) 

Warmup complete CPU 0 instructions: 1000002 cycles: 547201 (Simulation time: 0 hr 0 min 2 sec) 

Heartbeat CPU 0 instructions: 2000001 cycles: 2713939 heartbeat IPC: 0.461523 cumulative IPC: 0.461523 (Simulation time: 0 hr 0 min 3 sec) 
Heartbeat CPU 0 instructions: 3000002 cycles: 7718968 heartbeat IPC: 0.199799 cumulative IPC: 0.278871 (Simulation time: 0 hr 0 min 6 sec) 
Heartbeat CPU 0 instructions: 4000000 cycles: 12766256 heartbeat IPC: 0.198126 cumulative IPC: 0.245518 (Simulation time: 0 hr 0 min 8 sec) 
Heartbeat CPU 0 instructions: 5000000 cycles: 18023778 heartbeat IPC: 0.190204 cumulative IPC: 0.228878 (Simulation time: 0 hr 0 min 11 sec) 
Heartbeat CPU 0 instructions: 6000001 cycles: 22883275 heartbeat IPC: 0.205783 cumulative IPC: 0.223853 (Simulation time: 0 hr 0 min 13 sec) 
Heartbeat CPU 0 instructions: 7000001 cycles: 27971846 heartbeat IPC: 0.196519 cumulative IPC: 0.218781 (Simulation time: 0 hr 0 min 15 sec) 
Heartbeat CPU 0 instructions: 8000000 cycles: 33139900 heartbeat IPC: 0.193496 cumulative IPC: 0.214772 (Simulation time: 0 hr 0 min 18 sec) 
Heartbeat CPU 0 instructions: 9000002 cycles: 37988369 heartbeat IPC: 0.206251 cumulative IPC: 0.213669 (Simulation time: 0 hr 0 min 20 sec) 
*** Reached end of trace for Core: 0 Repeating trace: ./trace/graph_analytics_10M.trace.gz
Heartbeat CPU 0 instructions: 10000003 cycles: 42768844 heartbeat IPC: 0.209184 cumulative IPC: 0.213161 (Simulation time: 0 hr 0 min 23 sec) 
Heartbeat CPU 0 instructions: 11000002 cycles: 44817191 heartbeat IPC: 0.488198 cumulative IPC: 0.225887 (Simulation time: 0 hr 0 min 25 sec) 
Finished CPU 0 instructions: 10000000 cycles: 44269990 cummulative IPC: 0.225887 (Simulation time: 0 hr 0 min 25 sec) 

ChampSim completed all CPUs

Region of Interest Statistics

CPU 0 cummulative IPC: 0.225887 instructions: 10000000 cycles: 44269990
LLC TOTAL     ACCESS:     142548  HIT:      46511  MISS:      96037
LLC LOAD      ACCESS:     103877  HIT:      10419  MISS:      93458
LLC RFO       ACCESS:        969  HIT:        152  MISS:        817
LLC PREFETCH  ACCESS:          0  HIT:          0  MISS:          0
LLC WRITEBACK ACCESS:      37702  HIT:      35940  MISS:       1762
