
*** ChampSim Multicore Out-of-Order Simulator ***

Warmup Instructions: 1000000
Simulation Instructions: 10000000
Configuration: 1
Number of CPUs: 1
LLC sets: 2048
LLC ways: 16
Off-chip DRAM Channels: 1 Width: 64-bit Data Rate: 1600 MT/s

CPU 0 runs ./trace/libquantum_10M.trace.gz
Initialize SHiP Replacement State
Heartbeat CPU 0 instructions: 1000000 cycles: 420326 heartbeat IPC: 2.37911 cumulative IPC: 2.37911 (Simulation time: 0 hr 0 min 1 sec) 

Warmup complete CPU 0 instructions: 1000001 cycles: 420327 (Simulation time: 0 hr 0 min 1 sec) 

Heartbeat CPU 0 instructions: 2000001 cycles: 3183567 heartbeat IPC: 0.361894 cumulative IPC: 0.361894 (Simulation time: 0 hr 0 min 4 sec) 
Heartbeat CPU 0 instructions: 3000001 cycles: 5927625 heartbeat IPC: 0.364424 cumulative IPC: 0.363155 (Simulation time: 0 hr 0 min 8 sec) 
Heartbeat CPU 0 instructions: 4000000 cycles: 8676011 heartbeat IPC: 0.36385 cumulative IPC: 0.363386 (Simulation time: 0 hr 0 min 12 sec) 
Heartbeat CPU 0 instructions: 5000001 cycles: 11498564 heartbeat IPC: 0.35429 cumulative IPC: 0.361068 (Simulation time: 0 hr 0 min 15 sec) 
Heartbeat CPU 0 instructions: 6000001 cycles: 14550117 heartbeat IPC: 0.327702 cumulative IPC: 0.353862 (Simulation time: 0 hr 0 min 20 sec) 
Heartbeat CPU 0 instructions: 7000000 cycles: 17427248 heartbeat IPC: 0.347568 cumulative IPC: 0.352797 (Simulation time: 0 hr 0 min 24 sec) 
Heartbeat CPU 0 instructions: 8000000 cycles: 19622353 heartbeat IPC: 0.455559 cumulative IPC: 0.364545 (Simulation time: 0 hr 0 min 27 sec) 
Heartbeat CPU 0 instructions: 9000001 cycles: 21815644 heartbeat IPC: 0.455936 cumulative IPC: 0.373914 (Simulation time: 0 hr 0 min 30 sec) 
