
*** ChampSim Multicore Out-of-Order Simulator ***

Warmup Instructions: 1000000
Simulation Instructions: 10000000
Configuration: 1
Number of CPUs: 1
LLC sets: 2048
LLC ways: 16
Off-chip DRAM Channels: 1 Width: 64-bit Data Rate: 1600 MT/s

CPU 0 runs ./trace/libquantum_10M.trace.gz
Initialize SHiP Replacement State
Heartbeat CPU 0 instructions: 1000000 cycles: 420326 heartbeat IPC: 2.37911 cumulative IPC: 2.37911 (Simulation time: 0 hr 0 min 2 sec) 

Warmup complete CPU 0 instructions: 1000001 cycles: 420327 (Simulation time: 0 hr 0 min 2 sec) 

Heartbeat CPU 0 instructions: 2000001 cycles: 3330839 heartbeat IPC: 0.343582 cumulative IPC: 0.343582 (Simulation time: 0 hr 0 min 4 sec) 
Heartbeat CPU 0 instructions: 3000001 cycles: 6247710 heartbeat IPC: 0.342833 cumulative IPC: 0.343207 (Simulation time: 0 hr 0 min 7 sec) 
Heartbeat CPU 0 instructions: 4000000 cycles: 9161752 heartbeat IPC: 0.343166 cumulative IPC: 0.343193 (Simulation time: 0 hr 0 min 9 sec) 
Heartbeat CPU 0 instructions: 5000001 cycles: 12075152 heartbeat IPC: 0.343242 cumulative IPC: 0.343205 (Simulation time: 0 hr 0 min 11 sec) 
Heartbeat CPU 0 instructions: 6000001 cycles: 14990835 heartbeat IPC: 0.342973 cumulative IPC: 0.343159 (Simulation time: 0 hr 0 min 13 sec) 
Heartbeat CPU 0 instructions: 7000000 cycles: 17856464 heartbeat IPC: 0.348963 cumulative IPC: 0.344113 (Simulation time: 0 hr 0 min 15 sec) 
Heartbeat CPU 0 instructions: 8000000 cycles: 20325960 heartbeat IPC: 0.404941 cumulative IPC: 0.351659 (Simulation time: 0 hr 0 min 17 sec) 
Heartbeat CPU 0 instructions: 9000001 cycles: 22517628 heartbeat IPC: 0.456274 cumulative IPC: 0.362035 (Simulation time: 0 hr 0 min 19 sec) 
*** Reached end of trace for Core: 0 Repeating trace: ./trace/libquantum_10M.trace.gz
Heartbeat CPU 0 instructions: 10000000 cycles: 24713062 heartbeat IPC: 0.45549 cumulative IPC: 0.370481 (Simulation time: 0 hr 0 min 20 sec) 
Heartbeat CPU 0 instructions: 11000001 cycles: 27209797 heartbeat IPC: 0.400523 cumulative IPC: 0.373281 (Simulation time: 0 hr 0 min 23 sec) 
Finished CPU 0 instructions: 10000000 cycles: 26789470 cummulative IPC: 0.373281 (Simulation time: 0 hr 0 min 23 sec) 

ChampSim completed all CPUs

Region of Interest Statistics

CPU 0 cummulative IPC: 0.373281 instructions: 10000000 cycles: 26789470
LLC TOTAL     ACCESS:     770071  HIT:     336900  MISS:     433171
LLC LOAD      ACCESS:     425280  HIT:          0  MISS:     425280
LLC RFO       ACCESS:          5  HIT:          0  MISS:          5
LLC PREFETCH  ACCESS:          0  HIT:          0  MISS:          0
LLC WRITEBACK ACCESS:     344786  HIT:     336900  MISS:       7886
