
*** ChampSim Multicore Out-of-Order Simulator ***

Warmup Instructions: 1000000
Simulation Instructions: 10000000
Configuration: 1
Number of CPUs: 1
LLC sets: 2048
LLC ways: 16
Off-chip DRAM Channels: 1 Width: 64-bit Data Rate: 1600 MT/s

CPU 0 runs ./trace/mcf_10M.trace.gz
Initialize SHiP Replacement State
Heartbeat CPU 0 instructions: 1000003 cycles: 495961 heartbeat IPC: 2.01629 cumulative IPC: 2.01629 (Simulation time: 0 hr 0 min 1 sec) 

Warmup complete CPU 0 instructions: 1000003 cycles: 495961 (Simulation time: 0 hr 0 min 1 sec) 

Heartbeat CPU 0 instructions: 2000002 cycles: 14283186 heartbeat IPC: 0.0725308 cumulative IPC: 0.0725308 (Simulation time: 0 hr 0 min 5 sec) 
Heartbeat CPU 0 instructions: 3000000 cycles: 20581759 heartbeat IPC: 0.158766 cumulative IPC: 0.0995727 (Simulation time: 0 hr 0 min 7 sec) 
Heartbeat CPU 0 instructions: 4000000 cycles: 26857623 heartbeat IPC: 0.159341 cumulative IPC: 0.113802 (Simulation time: 0 hr 0 min 9 sec) 
Heartbeat CPU 0 instructions: 5000001 cycles: 44102806 heartbeat IPC: 0.0579873 cumulative IPC: 0.0917287 (Simulation time: 0 hr 0 min 13 sec) 
Heartbeat CPU 0 instructions: 6000002 cycles: 50973314 heartbeat IPC: 0.14555 cumulative IPC: 0.0990543 (Simulation time: 0 hr 0 min 15 sec) 
Heartbeat CPU 0 instructions: 7000000 cycles: 57034112 heartbeat IPC: 0.164994 cumulative IPC: 0.106123 (Simulation time: 0 hr 0 min 17 sec) 
Heartbeat CPU 0 instructions: 8000000 cycles: 67468705 heartbeat IPC: 0.0958351 cumulative IPC: 0.10452 (Simulation time: 0 hr 0 min 18 sec) 
Heartbeat CPU 0 instructions: 9000002 cycles: 80626944 heartbeat IPC: 0.0759982 cumulative IPC: 0.0998365 (Simulation time: 0 hr 0 min 21 sec) 
*** Reached end of trace for Core: 0 Repeating trace: ./trace/mcf_10M.trace.gz
Heartbeat CPU 0 instructions: 10000001 cycles: 86421877 heartbeat IPC: 0.172564 cumulative IPC: 0.104741 (Simulation time: 0 hr 0 min 24 sec) 
Heartbeat CPU 0 instructions: 11000003 cycles: 96418067 heartbeat IPC: 0.100038 cumulative IPC: 0.104251 (Simulation time: 0 hr 0 min 26 sec) 
Finished CPU 0 instructions: 10000000 cycles: 95922106 cummulative IPC: 0.104251 (Simulation time: 0 hr 0 min 26 sec) 

ChampSim completed all CPUs

Region of Interest Statistics

CPU 0 cummulative IPC: 0.104251 instructions: 10000000 cycles: 95922106
LLC TOTAL     ACCESS:    1017548  HIT:     405192  MISS:     612356
LLC LOAD      ACCESS:     819887  HIT:     224290  MISS:     595597
LLC RFO       ACCESS:      18332  HIT:       4613  MISS:      13719
LLC PREFETCH  ACCESS:          0  HIT:          0  MISS:          0
LLC WRITEBACK ACCESS:     179329  HIT:     176289  MISS:       3040
