
*** ChampSim Multicore Out-of-Order Simulator ***

Warmup Instructions: 1000000
Simulation Instructions: 10000000
Configuration: 1
Number of CPUs: 1
LLC sets: 2048
LLC ways: 16
Off-chip DRAM Channels: 1 Width: 64-bit Data Rate: 1600 MT/s

CPU 0 runs ./trace/mcf_10M.trace.gz
Initialize SHiP Replacement State
Heartbeat CPU 0 instructions: 1000003 cycles: 495583 heartbeat IPC: 2.01783 cumulative IPC: 2.01783 (Simulation time: 0 hr 0 min 1 sec) 

Warmup complete CPU 0 instructions: 1000003 cycles: 495583 (Simulation time: 0 hr 0 min 1 sec) 

Heartbeat CPU 0 instructions: 2000002 cycles: 13675881 heartbeat IPC: 0.0758707 cumulative IPC: 0.0758707 (Simulation time: 0 hr 0 min 4 sec) 
Heartbeat CPU 0 instructions: 3000000 cycles: 20224695 heartbeat IPC: 0.152699 cumulative IPC: 0.101373 (Simulation time: 0 hr 0 min 6 sec) 
Heartbeat CPU 0 instructions: 4000000 cycles: 26872103 heartbeat IPC: 0.150435 cumulative IPC: 0.113737 (Simulation time: 0 hr 0 min 9 sec) 
Heartbeat CPU 0 instructions: 5000001 cycles: 42695607 heartbeat IPC: 0.0631972 cumulative IPC: 0.0947866 (Simulation time: 0 hr 0 min 12 sec) 
Heartbeat CPU 0 instructions: 6000002 cycles: 49400705 heartbeat IPC: 0.14914 cumulative IPC: 0.102239 (Simulation time: 0 hr 0 min 14 sec) 
Heartbeat CPU 0 instructions: 7000000 cycles: 55669400 heartbeat IPC: 0.159523 cumulative IPC: 0.108747 (Simulation time: 0 hr 0 min 16 sec) 
Heartbeat CPU 0 instructions: 8000000 cycles: 65417488 heartbeat IPC: 0.102584 cumulative IPC: 0.107822 (Simulation time: 0 hr 0 min 19 sec) 
Heartbeat CPU 0 instructions: 9000002 cycles: 77879439 heartbeat IPC: 0.0802444 cumulative IPC: 0.103381 (Simulation time: 0 hr 0 min 21 sec) 
*** Reached end of trace for Core: 0 Repeating trace: ./trace/mcf_10M.trace.gz
Heartbeat CPU 0 instructions: 10000001 cycles: 83970053 heartbeat IPC: 0.164187 cumulative IPC: 0.107817 (Simulation time: 0 hr 0 min 23 sec) 
Heartbeat CPU 0 instructions: 11000003 cycles: 93345980 heartbeat IPC: 0.106656 cumulative IPC: 0.1077 (Simulation time: 0 hr 0 min 26 sec) 
Finished CPU 0 instructions: 10000000 cycles: 92850397 cummulative IPC: 0.1077 (Simulation time: 0 hr 0 min 26 sec) 

ChampSim completed all CPUs

Region of Interest Statistics

CPU 0 cummulative IPC: 0.1077 instructions: 10000000 cycles: 92850397
LLC TOTAL     ACCESS:    1017540  HIT:     358471  MISS:     659069
LLC LOAD      ACCESS:     819896  HIT:     259158  MISS:     560738
LLC RFO       ACCESS:      18312  HIT:      11492  MISS:       6820
LLC PREFETCH  ACCESS:          0  HIT:          0  MISS:          0
LLC WRITEBACK ACCESS:     179332  HIT:      87821  MISS:      91511
