
*** ChampSim Multicore Out-of-Order Simulator ***

Warmup Instructions: 1000000
Simulation Instructions: 10000000
Configuration: 1
Number of CPUs: 1
LLC sets: 2048
LLC ways: 16
Off-chip DRAM Channels: 1 Width: 64-bit Data Rate: 1600 MT/s

CPU 0 runs ./trace/mcf_10M.trace.gz
Initialize DRRIP replacement state
Heartbeat CPU 0 instructions: 1000003 cycles: 495761 heartbeat IPC: 2.01711 cumulative IPC: 2.01711 (Simulation time: 0 hr 0 min 3 sec) 
PSEL counter: 548

Warmup complete CPU 0 instructions: 1000003 cycles: 495761 (Simulation time: 0 hr 0 min 3 sec) 

Heartbeat CPU 0 instructions: 2000002 cycles: 14280413 heartbeat IPC: 0.0725444 cumulative IPC: 0.0725444 (Simulation time: 0 hr 0 min 8 sec) 
PSEL counter: 671
Heartbeat CPU 0 instructions: 3000000 cycles: 20721969 heartbeat IPC: 0.155242 cumulative IPC: 0.0988815 (Simulation time: 0 hr 0 min 12 sec) 
PSEL counter: 944
Heartbeat CPU 0 instructions: 4000000 cycles: 27095890 heartbeat IPC: 0.156889 cumulative IPC: 0.112781 (Simulation time: 0 hr 0 min 15 sec) 
PSEL counter: 967
Heartbeat CPU 0 instructions: 5000001 cycles: 44570776 heartbeat IPC: 0.057225 cumulative IPC: 0.0907543 (Simulation time: 0 hr 0 min 21 sec) 
PSEL counter: 982
Heartbeat CPU 0 instructions: 6000002 cycles: 51505780 heartbeat IPC: 0.144196 cumulative IPC: 0.0980199 (Simulation time: 0 hr 0 min 25 sec) 
PSEL counter: 944
Heartbeat CPU 0 instructions: 7000000 cycles: 57625005 heartbeat IPC: 0.163419 cumulative IPC: 0.105025 (Simulation time: 0 hr 0 min 26 sec) 
PSEL counter: 878
Heartbeat CPU 0 instructions: 8000000 cycles: 68049217 heartbeat IPC: 0.0959305 cumulative IPC: 0.103622 (Simulation time: 0 hr 0 min 31 sec) 
PSEL counter: 850
Heartbeat CPU 0 instructions: 9000002 cycles: 81560416 heartbeat IPC: 0.0740128 cumulative IPC: 0.0986867 (Simulation time: 0 hr 0 min 36 sec) 
PSEL counter: 987
*** Reached end of trace for Core: 0 Repeating trace: ./trace/mcf_10M.trace.gz
Heartbeat CPU 0 instructions: 10000001 cycles: 87750712 heartbeat IPC: 0.161543 cumulative IPC: 0.103146 (Simulation time: 0 hr 0 min 39 sec) 
PSEL counter: 993
Heartbeat CPU 0 instructions: 11000003 cycles: 98189602 heartbeat IPC: 0.0957958 cumulative IPC: 0.102361 (Simulation time: 0 hr 0 min 44 sec) 
PSEL counter: 981
Finished CPU 0 instructions: 10000000 cycles: 97693841 cummulative IPC: 0.102361 (Simulation time: 0 hr 0 min 44 sec) 

ChampSim completed all CPUs

Region of Interest Statistics

CPU 0 cummulative IPC: 0.102361 instructions: 10000000 cycles: 97693841
LLC TOTAL     ACCESS:    1017551  HIT:     387352  MISS:     630199
LLC LOAD      ACCESS:     819891  HIT:     206648  MISS:     613243
LLC RFO       ACCESS:      18330  HIT:       5579  MISS:      12751
LLC PREFETCH  ACCESS:          0  HIT:          0  MISS:          0
LLC WRITEBACK ACCESS:     179330  HIT:     175125  MISS:       4205
Final PSEL value: 981
