
*** ChampSim Multicore Out-of-Order Simulator ***

Warmup Instructions: 1000000
Simulation Instructions: 10000000
Configuration: 1
Number of CPUs: 1
LLC sets: 2048
LLC ways: 16
Off-chip DRAM Channels: 1 Width: 64-bit Data Rate: 1600 MT/s

CPU 0 runs ./trace/mcf_10M.trace.gz
Initialize SRRIP state
Heartbeat CPU 0 instructions: 1000003 cycles: 496061 heartbeat IPC: 2.01589 cumulative IPC: 2.01589 (Simulation time: 0 hr 0 min 1 sec) 

Warmup complete CPU 0 instructions: 1000003 cycles: 496061 (Simulation time: 0 hr 0 min 1 sec) 

Heartbeat CPU 0 instructions: 2000002 cycles: 14441206 heartbeat IPC: 0.0717095 cumulative IPC: 0.0717095 (Simulation time: 0 hr 0 min 5 sec) 
Heartbeat CPU 0 instructions: 3000000 cycles: 21050378 heartbeat IPC: 0.151305 cumulative IPC: 0.097303 (Simulation time: 0 hr 0 min 7 sec) 
Heartbeat CPU 0 instructions: 4000000 cycles: 27686011 heartbeat IPC: 0.150702 cumulative IPC: 0.110335 (Simulation time: 0 hr 0 min 9 sec) 
Heartbeat CPU 0 instructions: 5000001 cycles: 45383342 heartbeat IPC: 0.0565058 cumulative IPC: 0.0891121 (Simulation time: 0 hr 0 min 11 sec) 
Heartbeat CPU 0 instructions: 6000002 cycles: 52538472 heartbeat IPC: 0.13976 cumulative IPC: 0.0960755 (Simulation time: 0 hr 0 min 14 sec) 
Heartbeat CPU 0 instructions: 7000000 cycles: 58862635 heartbeat IPC: 0.158123 cumulative IPC: 0.102799 (Simulation time: 0 hr 0 min 16 sec) 
Heartbeat CPU 0 instructions: 8000000 cycles: 69631737 heartbeat IPC: 0.0928583 cumulative IPC: 0.10125 (Simulation time: 0 hr 0 min 19 sec) 
Heartbeat CPU 0 instructions: 9000002 cycles: 83289517 heartbeat IPC: 0.0732185 cumulative IPC: 0.096626 (Simulation time: 0 hr 0 min 22 sec) 
*** Reached end of trace for Core: 0 Repeating trace: ./trace/mcf_10M.trace.gz
Heartbeat CPU 0 instructions: 10000001 cycles: 89615980 heartbeat IPC: 0.158066 cumulative IPC: 0.100988 (Simulation time: 0 hr 0 min 24 sec) 
Heartbeat CPU 0 instructions: 11000003 cycles: 100358838 heartbeat IPC: 0.0930853 cumulative IPC: 0.100137 (Simulation time: 0 hr 0 min 27 sec) 
Finished CPU 0 instructions: 10000000 cycles: 99862777 cummulative IPC: 0.100137 (Simulation time: 0 hr 0 min 27 sec) 

ChampSim completed all CPUs

Region of Interest Statistics

CPU 0 cummulative IPC: 0.100137 instructions: 10000000 cycles: 99862777
LLC TOTAL     ACCESS:    1017535  HIT:     363451  MISS:     654084
LLC LOAD      ACCESS:     819877  HIT:     179307  MISS:     640570
LLC RFO       ACCESS:      18328  HIT:       5486  MISS:      12842
LLC PREFETCH  ACCESS:          0  HIT:          0  MISS:          0
LLC WRITEBACK ACCESS:     179330  HIT:     178658  MISS:        672
