
*** ChampSim Multicore Out-of-Order Simulator ***

Warmup Instructions: 1000000
Simulation Instructions: 10000000
Configuration: 1
Number of CPUs: 1
LLC sets: 2048
LLC ways: 16
Off-chip DRAM Channels: 1 Width: 64-bit Data Rate: 1600 MT/s

CPU 0 runs ./trace/mcf_10M.trace.gz
Initialize SHiP Replacement State
Heartbeat CPU 0 instructions: 1000003 cycles: 496043 heartbeat IPC: 2.01596 cumulative IPC: 2.01596 (Simulation time: 0 hr 0 min 1 sec) 

Warmup complete CPU 0 instructions: 1000003 cycles: 496043 (Simulation time: 0 hr 0 min 1 sec) 

Heartbeat CPU 0 instructions: 2000002 cycles: 14276782 heartbeat IPC: 0.072565 cumulative IPC: 0.072565 (Simulation time: 0 hr 0 min 5 sec) 
Heartbeat CPU 0 instructions: 3000000 cycles: 20478676 heartbeat IPC: 0.161241 cumulative IPC: 0.100087 (Simulation time: 0 hr 0 min 7 sec) 
Heartbeat CPU 0 instructions: 4000000 cycles: 26436881 heartbeat IPC: 0.167836 cumulative IPC: 0.115648 (Simulation time: 0 hr 0 min 9 sec) 
Heartbeat CPU 0 instructions: 5000001 cycles: 43482018 heartbeat IPC: 0.0586678 cumulative IPC: 0.0930536 (Simulation time: 0 hr 0 min 13 sec) 
Heartbeat CPU 0 instructions: 6000002 cycles: 50335883 heartbeat IPC: 0.145903 cumulative IPC: 0.100321 (Simulation time: 0 hr 0 min 15 sec) 
Heartbeat CPU 0 instructions: 7000000 cycles: 56161955 heartbeat IPC: 0.171642 cumulative IPC: 0.107786 (Simulation time: 0 hr 0 min 17 sec) 
Heartbeat CPU 0 instructions: 8000000 cycles: 66123836 heartbeat IPC: 0.100383 cumulative IPC: 0.106662 (Simulation time: 0 hr 0 min 20 sec) 
Heartbeat CPU 0 instructions: 9000002 cycles: 79209674 heartbeat IPC: 0.0764186 cumulative IPC: 0.101634 (Simulation time: 0 hr 0 min 23 sec) 
*** Reached end of trace for Core: 0 Repeating trace: ./trace/mcf_10M.trace.gz
Heartbeat CPU 0 instructions: 10000001 cycles: 85003778 heartbeat IPC: 0.172589 cumulative IPC: 0.106499 (Simulation time: 0 hr 0 min 25 sec) 
Heartbeat CPU 0 instructions: 11000003 cycles: 94920249 heartbeat IPC: 0.100843 cumulative IPC: 0.105905 (Simulation time: 0 hr 0 min 28 sec) 
Finished CPU 0 instructions: 10000000 cycles: 94424206 cummulative IPC: 0.105905 (Simulation time: 0 hr 0 min 28 sec) 

ChampSim completed all CPUs

Region of Interest Statistics

CPU 0 cummulative IPC: 0.105905 instructions: 10000000 cycles: 94424206
LLC TOTAL     ACCESS:    1017547  HIT:     422502  MISS:     595045
LLC LOAD      ACCESS:     819891  HIT:     240902  MISS:     578989
LLC RFO       ACCESS:      18325  HIT:       5204  MISS:      13121
LLC PREFETCH  ACCESS:          0  HIT:          0  MISS:          0
LLC WRITEBACK ACCESS:     179331  HIT:     176396  MISS:       2935
